L24/1726527/_ATERRAMENTO.dss
! Aterramento do neutro (no 4) dos secundarios de BT
! Reactor de 0.5 ohm entre o no 4 e a terra (no 0).
New Reactor.NEUTRO_node_1024170809 phases=1 bus1=node_1024170809.4 bus2=node_1024170809.0 R=0.5 X=0
New Reactor.NEUTRO_node_1037769741 phases=1 bus1=node_1037769741.4 bus2=node_1037769741.0 R=0.5 X=0
New Reactor.NEUTRO_node_1049556708 phases=1 bus1=node_1049556708.4 bus2=node_1049556708.0 R=0.5 X=0
New Reactor.NEUTRO_node_1050566057 phases=1 bus1=node_1050566057.4 bus2=node_1050566057.0 R=0.5 X=0
New Reactor.NEUTRO_node_1054864836 phases=1 bus1=node_1054864836.4 bus2=node_1054864836.0 R=0.5 X=0
New Reactor.NEUTRO_node_1110226779 phases=1 bus1=node_1110226779.4 bus2=node_1110226779.0 R=0.5 X=0
New Reactor.NEUTRO_node_1110226926 phases=1 bus1=node_1110226926.4 bus2=node_1110226926.0 R=0.5 X=0
New Reactor.NEUTRO_node_1122529002 phases=1 bus1=node_1122529002.4 bus2=node_1122529002.0 R=0.5 X=0
New Reactor.NEUTRO_node_1129103103 phases=1 bus1=node_1129103103.4 bus2=node_1129103103.0 R=0.5 X=0
New Reactor.NEUTRO_node_1148353099 phases=1 bus1=node_1148353099.4 bus2=node_1148353099.0 R=0.5 X=0
New Reactor.NEUTRO_node_1151135595 phases=1 bus1=node_1151135595.4 bus2=node_1151135595.0 R=0.5 X=0
New Reactor.NEUTRO_node_1162305578 phases=1 bus1=node_1162305578.4 bus2=node_1162305578.0 R=0.5 X=0
New Reactor.NEUTRO_node_1163068594 phases=1 bus1=node_1163068594.4 bus2=node_1163068594.0 R=0.5 X=0
New Reactor.NEUTRO_node_1172129030 phases=1 bus1=node_1172129030.4 bus2=node_1172129030.0 R=0.5 X=0
New Reactor.NEUTRO_node_1180446447 phases=1 bus1=node_1180446447.4 bus2=node_1180446447.0 R=0.5 X=0
New Reactor.NEUTRO_node_1183057168 phases=1 bus1=node_1183057168.4 bus2=node_1183057168.0 R=0.5 X=0
New Reactor.NEUTRO_node_1183057189 phases=1 bus1=node_1183057189.4 bus2=node_1183057189.0 R=0.5 X=0
New Reactor.NEUTRO_node_1183765681 phases=1 bus1=node_1183765681.4 bus2=node_1183765681.0 R=0.5 X=0
New Reactor.NEUTRO_node_1223957795 phases=1 bus1=node_1223957795.4 bus2=node_1223957795.0 R=0.5 X=0
New Reactor.NEUTRO_node_1227667533 phases=1 bus1=node_1227667533.4 bus2=node_1227667533.0 R=0.5 X=0
New Reactor.NEUTRO_node_1234112889 phases=1 bus1=node_1234112889.4 bus2=node_1234112889.0 R=0.5 X=0
New Reactor.NEUTRO_node_1246076010 phases=1 bus1=node_1246076010.4 bus2=node_1246076010.0 R=0.5 X=0
New Reactor.NEUTRO_node_1247183833 phases=1 bus1=node_1247183833.4 bus2=node_1247183833.0 R=0.5 X=0
New Reactor.NEUTRO_node_1284988435 phases=1 bus1=node_1284988435.4 bus2=node_1284988435.0 R=0.5 X=0
New Reactor.NEUTRO_node_1284988469 phases=1 bus1=node_1284988469.4 bus2=node_1284988469.0 R=0.5 X=0
New Reactor.NEUTRO_node_1286813334 phases=1 bus1=node_1286813334.4 bus2=node_1286813334.0 R=0.5 X=0
New Reactor.NEUTRO_node_1294005554 phases=1 bus1=node_1294005554.4 bus2=node_1294005554.0 R=0.5 X=0
New Reactor.NEUTRO_node_1302735402 phases=1 bus1=node_1302735402.4 bus2=node_1302735402.0 R=0.5 X=0
New Reactor.NEUTRO_node_1311688328 phases=1 bus1=node_1311688328.4 bus2=node_1311688328.0 R=0.5 X=0
New Reactor.NEUTRO_node_1313011198 phases=1 bus1=node_1313011198.4 bus2=node_1313011198.0 R=0.5 X=0
New Reactor.NEUTRO_node_1327756863 phases=1 bus1=node_1327756863.4 bus2=node_1327756863.0 R=0.5 X=0
New Reactor.NEUTRO_node_1381912312 phases=1 bus1=node_1381912312.4 bus2=node_1381912312.0 R=0.5 X=0
New Reactor.NEUTRO_node_1416483651 phases=1 bus1=node_1416483651.4 bus2=node_1416483651.0 R=0.5 X=0
New Reactor.NEUTRO_node_1422958674 phases=1 bus1=node_1422958674.4 bus2=node_1422958674.0 R=0.5 X=0
New Reactor.NEUTRO_node_1502706806 phases=1 bus1=node_1502706806.4 bus2=node_1502706806.0 R=0.5 X=0
New Reactor.NEUTRO_node_1545174496 phases=1 bus1=node_1545174496.4 bus2=node_1545174496.0 R=0.5 X=0
New Reactor.NEUTRO_node_1624283449 phases=1 bus1=node_1624283449.4 bus2=node_1624283449.0 R=0.5 X=0
New Reactor.NEUTRO_node_1635120992 phases=1 bus1=node_1635120992.4 bus2=node_1635120992.0 R=0.5 X=0
New Reactor.NEUTRO_node_1694390941 phases=1 bus1=node_1694390941.4 bus2=node_1694390941.0 R=0.5 X=0
New Reactor.NEUTRO_node_1699771367 phases=1 bus1=node_1699771367.4 bus2=node_1699771367.0 R=0.5 X=0
New Reactor.NEUTRO_node_1713993274 phases=1 bus1=node_1713993274.4 bus2=node_1713993274.0 R=0.5 X=0
New Reactor.NEUTRO_node_1732969263 phases=1 bus1=node_1732969263.4 bus2=node_1732969263.0 R=0.5 X=0
New Reactor.NEUTRO_node_1737683464 phases=1 bus1=node_1737683464.4 bus2=node_1737683464.0 R=0.5 X=0
New Reactor.NEUTRO_node_1760694652 phases=1 bus1=node_1760694652.4 bus2=node_1760694652.0 R=0.5 X=0
New Reactor.NEUTRO_node_1762785945 phases=1 bus1=node_1762785945.4 bus2=node_1762785945.0 R=0.5 X=0
New Reactor.NEUTRO_node_1783418485 phases=1 bus1=node_1783418485.4 bus2=node_1783418485.0 R=0.5 X=0
New Reactor.NEUTRO_node_1817092105 phases=1 bus1=node_1817092105.4 bus2=node_1817092105.0 R=0.5 X=0
New Reactor.NEUTRO_node_1824739717 phases=1 bus1=node_1824739717.4 bus2=node_1824739717.0 R=0.5 X=0
New Reactor.NEUTRO_node_1843448553 phases=1 bus1=node_1843448553.4 bus2=node_1843448553.0 R=0.5 X=0
New Reactor.NEUTRO_node_1864665247 phases=1 bus1=node_1864665247.4 bus2=node_1864665247.0 R=0.5 X=0
New Reactor.NEUTRO_node_1877195338 phases=1 bus1=node_1877195338.4 bus2=node_1877195338.0 R=0.5 X=0
New Reactor.NEUTRO_node_1882141937 phases=1 bus1=node_1882141937.4 bus2=node_1882141937.0 R=0.5 X=0
New Reactor.NEUTRO_node_1885109185 phases=1 bus1=node_1885109185.4 bus2=node_1885109185.0 R=0.5 X=0
New Reactor.NEUTRO_node_1889699295 phases=1 bus1=node_1889699295.4 bus2=node_1889699295.0 R=0.5 X=0
New Reactor.NEUTRO_node_1890725640 phases=1 bus1=node_1890725640.4 bus2=node_1890725640.0 R=0.5 X=0
New Reactor.NEUTRO_node_1900163787 phases=1 bus1=node_1900163787.4 bus2=node_1900163787.0 R=0.5 X=0
New Reactor.NEUTRO_node_1902001554 phases=1 bus1=node_1902001554.4 bus2=node_1902001554.0 R=0.5 X=0
New Reactor.NEUTRO_node_1902134667 phases=1 bus1=node_1902134667.4 bus2=node_1902134667.0 R=0.5 X=0
New Reactor.NEUTRO_node_1902237720 phases=1 bus1=node_1902237720.4 bus2=node_1902237720.0 R=0.5 X=0
New Reactor.NEUTRO_node_1922350814 phases=1 bus1=node_1922350814.4 bus2=node_1922350814.0 R=0.5 X=0
New Reactor.NEUTRO_node_1923621829 phases=1 bus1=node_1923621829.4 bus2=node_1923621829.0 R=0.5 X=0
New Reactor.NEUTRO_node_1941072980 phases=1 bus1=node_1941072980.4 bus2=node_1941072980.0 R=0.5 X=0
New Reactor.NEUTRO_node_1949274305 phases=1 bus1=node_1949274305.4 bus2=node_1949274305.0 R=0.5 X=0
New Reactor.NEUTRO_node_1949515151 phases=1 bus1=node_1949515151.4 bus2=node_1949515151.0 R=0.5 X=0
New Reactor.NEUTRO_node_1951494197 phases=1 bus1=node_1951494197.4 bus2=node_1951494197.0 R=0.5 X=0
New Reactor.NEUTRO_node_1952675145 phases=1 bus1=node_1952675145.4 bus2=node_1952675145.0 R=0.5 X=0
New Reactor.NEUTRO_node_1969666556 phases=1 bus1=node_1969666556.4 bus2=node_1969666556.0 R=0.5 X=0
New Reactor.NEUTRO_node_1976983413 phases=1 bus1=node_1976983413.4 bus2=node_1976983413.0 R=0.5 X=0
New Reactor.NEUTRO_node_1977571787 phases=1 bus1=node_1977571787.4 bus2=node_1977571787.0 R=0.5 X=0
New Reactor.NEUTRO_node_1980242584 phases=1 bus1=node_1980242584.4 bus2=node_1980242584.0 R=0.5 X=0
New Reactor.NEUTRO_node_1980521702 phases=1 bus1=node_1980521702.4 bus2=node_1980521702.0 R=0.5 X=0
New Reactor.NEUTRO_node_2010695935 phases=1 bus1=node_2010695935.4 bus2=node_2010695935.0 R=0.5 X=0
New Reactor.NEUTRO_node_2022869422 phases=1 bus1=node_2022869422.4 bus2=node_2022869422.0 R=0.5 X=0
New Reactor.NEUTRO_node_2022869794 phases=1 bus1=node_2022869794.4 bus2=node_2022869794.0 R=0.5 X=0
New Reactor.NEUTRO_node_2029975985 phases=1 bus1=node_2029975985.4 bus2=node_2029975985.0 R=0.5 X=0
New Reactor.NEUTRO_node_2030473805 phases=1 bus1=node_2030473805.4 bus2=node_2030473805.0 R=0.5 X=0
New Reactor.NEUTRO_node_2044330884 phases=1 bus1=node_2044330884.4 bus2=node_2044330884.0 R=0.5 X=0
New Reactor.NEUTRO_node_2060853893 phases=1 bus1=node_2060853893.4 bus2=node_2060853893.0 R=0.5 X=0
New Reactor.NEUTRO_node_2060853929 phases=1 bus1=node_2060853929.4 bus2=node_2060853929.0 R=0.5 X=0
New Reactor.NEUTRO_node_2090272022 phases=1 bus1=node_2090272022.4 bus2=node_2090272022.0 R=0.5 X=0
New Reactor.NEUTRO_node_2115860214 phases=1 bus1=node_2115860214.4 bus2=node_2115860214.0 R=0.5 X=0
New Reactor.NEUTRO_node_2118698419 phases=1 bus1=node_2118698419.4 bus2=node_2118698419.0 R=0.5 X=0
New Reactor.NEUTRO_node_2122580526 phases=1 bus1=node_2122580526.4 bus2=node_2122580526.0 R=0.5 X=0
New Reactor.NEUTRO_node_2122615159 phases=1 bus1=node_2122615159.4 bus2=node_2122615159.0 R=0.5 X=0
New Reactor.NEUTRO_node_2124259426 phases=1 bus1=node_2124259426.4 bus2=node_2124259426.0 R=0.5 X=0
New Reactor.NEUTRO_node_2127007323 phases=1 bus1=node_2127007323.4 bus2=node_2127007323.0 R=0.5 X=0
New Reactor.NEUTRO_node_2130957739 phases=1 bus1=node_2130957739.4 bus2=node_2130957739.0 R=0.5 X=0
New Reactor.NEUTRO_node_2130957992 phases=1 bus1=node_2130957992.4 bus2=node_2130957992.0 R=0.5 X=0
New Reactor.NEUTRO_node_2143951499 phases=1 bus1=node_2143951499.4 bus2=node_2143951499.0 R=0.5 X=0
New Reactor.NEUTRO_node_2154888166 phases=1 bus1=node_2154888166.4 bus2=node_2154888166.0 R=0.5 X=0
New Reactor.NEUTRO_node_2160070951 phases=1 bus1=node_2160070951.4 bus2=node_2160070951.0 R=0.5 X=0
New Reactor.NEUTRO_node_2182902220 phases=1 bus1=node_2182902220.4 bus2=node_2182902220.0 R=0.5 X=0
New Reactor.NEUTRO_node_2183365938 phases=1 bus1=node_2183365938.4 bus2=node_2183365938.0 R=0.5 X=0
New Reactor.NEUTRO_node_2192074147 phases=1 bus1=node_2192074147.4 bus2=node_2192074147.0 R=0.5 X=0
New Reactor.NEUTRO_node_2195595274 phases=1 bus1=node_2195595274.4 bus2=node_2195595274.0 R=0.5 X=0
New Reactor.NEUTRO_node_2202517377 phases=1 bus1=node_2202517377.4 bus2=node_2202517377.0 R=0.5 X=0
New Reactor.NEUTRO_node_2212205102 phases=1 bus1=node_2212205102.4 bus2=node_2212205102.0 R=0.5 X=0
New Reactor.NEUTRO_node_2213861952 phases=1 bus1=node_2213861952.4 bus2=node_2213861952.0 R=0.5 X=0
New Reactor.NEUTRO_node_2239677440 phases=1 bus1=node_2239677440.4 bus2=node_2239677440.0 R=0.5 X=0
New Reactor.NEUTRO_node_2242189516 phases=1 bus1=node_2242189516.4 bus2=node_2242189516.0 R=0.5 X=0
New Reactor.NEUTRO_node_2243851407 phases=1 bus1=node_2243851407.4 bus2=node_2243851407.0 R=0.5 X=0
New Reactor.NEUTRO_node_2248823681 phases=1 bus1=node_2248823681.4 bus2=node_2248823681.0 R=0.5 X=0
New Reactor.NEUTRO_node_2254483164 phases=1 bus1=node_2254483164.4 bus2=node_2254483164.0 R=0.5 X=0
New Reactor.NEUTRO_node_2258236164 phases=1 bus1=node_2258236164.4 bus2=node_2258236164.0 R=0.5 X=0
New Reactor.NEUTRO_node_2264565541 phases=1 bus1=node_2264565541.4 bus2=node_2264565541.0 R=0.5 X=0
New Reactor.NEUTRO_node_2264565573 phases=1 bus1=node_2264565573.4 bus2=node_2264565573.0 R=0.5 X=0
New Reactor.NEUTRO_node_2327266574 phases=1 bus1=node_2327266574.4 bus2=node_2327266574.0 R=0.5 X=0
New Reactor.NEUTRO_node_2335876054 phases=1 bus1=node_2335876054.4 bus2=node_2335876054.0 R=0.5 X=0
New Reactor.NEUTRO_node_2335876055 phases=1 bus1=node_2335876055.4 bus2=node_2335876055.0 R=0.5 X=0
New Reactor.NEUTRO_node_2351484604 phases=1 bus1=node_2351484604.4 bus2=node_2351484604.0 R=0.5 X=0
New Reactor.NEUTRO_node_2380026800 phases=1 bus1=node_2380026800.4 bus2=node_2380026800.0 R=0.5 X=0
New Reactor.NEUTRO_node_2380026922 phases=1 bus1=node_2380026922.4 bus2=node_2380026922.0 R=0.5 X=0
New Reactor.NEUTRO_node_2382487675 phases=1 bus1=node_2382487675.4 bus2=node_2382487675.0 R=0.5 X=0
New Reactor.NEUTRO_node_2384823576 phases=1 bus1=node_2384823576.4 bus2=node_2384823576.0 R=0.5 X=0
New Reactor.NEUTRO_node_2399990044 phases=1 bus1=node_2399990044.4 bus2=node_2399990044.0 R=0.5 X=0
New Reactor.NEUTRO_node_2464975014 phases=1 bus1=node_2464975014.4 bus2=node_2464975014.0 R=0.5 X=0
New Reactor.NEUTRO_node_2472627164 phases=1 bus1=node_2472627164.4 bus2=node_2472627164.0 R=0.5 X=0
New Reactor.NEUTRO_node_2486255443 phases=1 bus1=node_2486255443.4 bus2=node_2486255443.0 R=0.5 X=0
New Reactor.NEUTRO_node_2487823441 phases=1 bus1=node_2487823441.4 bus2=node_2487823441.0 R=0.5 X=0
New Reactor.NEUTRO_node_2493607554 phases=1 bus1=node_2493607554.4 bus2=node_2493607554.0 R=0.5 X=0
New Reactor.NEUTRO_node_2494981588 phases=1 bus1=node_2494981588.4 bus2=node_2494981588.0 R=0.5 X=0
New Reactor.NEUTRO_node_2497102737 phases=1 bus1=node_2497102737.4 bus2=node_2497102737.0 R=0.5 X=0
New Reactor.NEUTRO_node_2505493247 phases=1 bus1=node_2505493247.4 bus2=node_2505493247.0 R=0.5 X=0
New Reactor.NEUTRO_node_2505953407 phases=1 bus1=node_2505953407.4 bus2=node_2505953407.0 R=0.5 X=0
New Reactor.NEUTRO_node_2511574077 phases=1 bus1=node_2511574077.4 bus2=node_2511574077.0 R=0.5 X=0
New Reactor.NEUTRO_node_2512071766 phases=1 bus1=node_2512071766.4 bus2=node_2512071766.0 R=0.5 X=0
New Reactor.NEUTRO_node_2520642555 phases=1 bus1=node_2520642555.4 bus2=node_2520642555.0 R=0.5 X=0
New Reactor.NEUTRO_node_2523133921 phases=1 bus1=node_2523133921.4 bus2=node_2523133921.0 R=0.5 X=0
New Reactor.NEUTRO_node_2529913235 phases=1 bus1=node_2529913235.4 bus2=node_2529913235.0 R=0.5 X=0
New Reactor.NEUTRO_node_2548669383 phases=1 bus1=node_2548669383.4 bus2=node_2548669383.0 R=0.5 X=0
New Reactor.NEUTRO_node_2548669471 phases=1 bus1=node_2548669471.4 bus2=node_2548669471.0 R=0.5 X=0
New Reactor.NEUTRO_node_2565166912 phases=1 bus1=node_2565166912.4 bus2=node_2565166912.0 R=0.5 X=0
New Reactor.NEUTRO_node_2576073740 phases=1 bus1=node_2576073740.4 bus2=node_2576073740.0 R=0.5 X=0
New Reactor.NEUTRO_node_2611228676 phases=1 bus1=node_2611228676.4 bus2=node_2611228676.0 R=0.5 X=0
New Reactor.NEUTRO_node_2617442160 phases=1 bus1=node_2617442160.4 bus2=node_2617442160.0 R=0.5 X=0
New Reactor.NEUTRO_node_2644657506 phases=1 bus1=node_2644657506.4 bus2=node_2644657506.0 R=0.5 X=0
New Reactor.NEUTRO_node_2644657611 phases=1 bus1=node_2644657611.4 bus2=node_2644657611.0 R=0.5 X=0
New Reactor.NEUTRO_node_2645584936 phases=1 bus1=node_2645584936.4 bus2=node_2645584936.0 R=0.5 X=0
New Reactor.NEUTRO_node_2645585012 phases=1 bus1=node_2645585012.4 bus2=node_2645585012.0 R=0.5 X=0
New Reactor.NEUTRO_node_2655860824 phases=1 bus1=node_2655860824.4 bus2=node_2655860824.0 R=0.5 X=0
New Reactor.NEUTRO_node_2669498403 phases=1 bus1=node_2669498403.4 bus2=node_2669498403.0 R=0.5 X=0
New Reactor.NEUTRO_node_2699784179 phases=1 bus1=node_2699784179.4 bus2=node_2699784179.0 R=0.5 X=0
New Reactor.NEUTRO_node_2709328876 phases=1 bus1=node_2709328876.4 bus2=node_2709328876.0 R=0.5 X=0
New Reactor.NEUTRO_node_2719511996 phases=1 bus1=node_2719511996.4 bus2=node_2719511996.0 R=0.5 X=0
New Reactor.NEUTRO_node_2735054832 phases=1 bus1=node_2735054832.4 bus2=node_2735054832.0 R=0.5 X=0
New Reactor.NEUTRO_node_2735055441 phases=1 bus1=node_2735055441.4 bus2=node_2735055441.0 R=0.5 X=0
New Reactor.NEUTRO_node_2736331186 phases=1 bus1=node_2736331186.4 bus2=node_2736331186.0 R=0.5 X=0
New Reactor.NEUTRO_node_2741792967 phases=1 bus1=node_2741792967.4 bus2=node_2741792967.0 R=0.5 X=0
New Reactor.NEUTRO_node_2741792995 phases=1 bus1=node_2741792995.4 bus2=node_2741792995.0 R=0.5 X=0
New Reactor.NEUTRO_node_2744416730 phases=1 bus1=node_2744416730.4 bus2=node_2744416730.0 R=0.5 X=0
New Reactor.NEUTRO_node_2744416896 phases=1 bus1=node_2744416896.4 bus2=node_2744416896.0 R=0.5 X=0
New Reactor.NEUTRO_node_2753926714 phases=1 bus1=node_2753926714.4 bus2=node_2753926714.0 R=0.5 X=0
New Reactor.NEUTRO_node_2758856381 phases=1 bus1=node_2758856381.4 bus2=node_2758856381.0 R=0.5 X=0
New Reactor.NEUTRO_node_2764435453 phases=1 bus1=node_2764435453.4 bus2=node_2764435453.0 R=0.5 X=0
New Reactor.NEUTRO_node_2767978600 phases=1 bus1=node_2767978600.4 bus2=node_2767978600.0 R=0.5 X=0
New Reactor.NEUTRO_node_2800961419 phases=1 bus1=node_2800961419.4 bus2=node_2800961419.0 R=0.5 X=0
New Reactor.NEUTRO_node_2811421803 phases=1 bus1=node_2811421803.4 bus2=node_2811421803.0 R=0.5 X=0
New Reactor.NEUTRO_node_2822497761 phases=1 bus1=node_2822497761.4 bus2=node_2822497761.0 R=0.5 X=0
New Reactor.NEUTRO_node_2823932043 phases=1 bus1=node_2823932043.4 bus2=node_2823932043.0 R=0.5 X=0
New Reactor.NEUTRO_node_2826654603 phases=1 bus1=node_2826654603.4 bus2=node_2826654603.0 R=0.5 X=0
New Reactor.NEUTRO_node_2830231850 phases=1 bus1=node_2830231850.4 bus2=node_2830231850.0 R=0.5 X=0
New Reactor.NEUTRO_node_2842201200 phases=1 bus1=node_2842201200.4 bus2=node_2842201200.0 R=0.5 X=0
New Reactor.NEUTRO_node_2844461612 phases=1 bus1=node_2844461612.4 bus2=node_2844461612.0 R=0.5 X=0
New Reactor.NEUTRO_node_2888320714 phases=1 bus1=node_2888320714.4 bus2=node_2888320714.0 R=0.5 X=0
New Reactor.NEUTRO_node_2896504937 phases=1 bus1=node_2896504937.4 bus2=node_2896504937.0 R=0.5 X=0
New Reactor.NEUTRO_node_2940622231 phases=1 bus1=node_2940622231.4 bus2=node_2940622231.0 R=0.5 X=0
New Reactor.NEUTRO_node_412163435 phases=1 bus1=node_412163435.4 bus2=node_412163435.0 R=0.5 X=0
New Reactor.NEUTRO_node_412163441 phases=1 bus1=node_412163441.4 bus2=node_412163441.0 R=0.5 X=0
New Reactor.NEUTRO_node_412163768 phases=1 bus1=node_412163768.4 bus2=node_412163768.0 R=0.5 X=0
New Reactor.NEUTRO_node_412189868 phases=1 bus1=node_412189868.4 bus2=node_412189868.0 R=0.5 X=0
New Reactor.NEUTRO_node_412326914 phases=1 bus1=node_412326914.4 bus2=node_412326914.0 R=0.5 X=0
New Reactor.NEUTRO_node_412339997 phases=1 bus1=node_412339997.4 bus2=node_412339997.0 R=0.5 X=0
New Reactor.NEUTRO_node_412340795 phases=1 bus1=node_412340795.4 bus2=node_412340795.0 R=0.5 X=0
New Reactor.NEUTRO_node_412341110 phases=1 bus1=node_412341110.4 bus2=node_412341110.0 R=0.5 X=0
New Reactor.NEUTRO_node_412383058 phases=1 bus1=node_412383058.4 bus2=node_412383058.0 R=0.5 X=0
New Reactor.NEUTRO_node_412517597 phases=1 bus1=node_412517597.4 bus2=node_412517597.0 R=0.5 X=0
New Reactor.NEUTRO_node_412518191 phases=1 bus1=node_412518191.4 bus2=node_412518191.0 R=0.5 X=0
New Reactor.NEUTRO_node_412534237 phases=1 bus1=node_412534237.4 bus2=node_412534237.0 R=0.5 X=0
New Reactor.NEUTRO_node_413228746 phases=1 bus1=node_413228746.4 bus2=node_413228746.0 R=0.5 X=0
New Reactor.NEUTRO_node_413260751 phases=1 bus1=node_413260751.4 bus2=node_413260751.0 R=0.5 X=0
New Reactor.NEUTRO_node_414092811 phases=1 bus1=node_414092811.4 bus2=node_414092811.0 R=0.5 X=0
New Reactor.NEUTRO_node_414094269 phases=1 bus1=node_414094269.4 bus2=node_414094269.0 R=0.5 X=0
New Reactor.NEUTRO_node_414094272 phases=1 bus1=node_414094272.4 bus2=node_414094272.0 R=0.5 X=0
New Reactor.NEUTRO_node_414094281 phases=1 bus1=node_414094281.4 bus2=node_414094281.0 R=0.5 X=0
New Reactor.NEUTRO_node_414094305 phases=1 bus1=node_414094305.4 bus2=node_414094305.0 R=0.5 X=0
New Reactor.NEUTRO_node_414094308 phases=1 bus1=node_414094308.4 bus2=node_414094308.0 R=0.5 X=0
New Reactor.NEUTRO_node_414094371 phases=1 bus1=node_414094371.4 bus2=node_414094371.0 R=0.5 X=0
New Reactor.NEUTRO_node_414094419 phases=1 bus1=node_414094419.4 bus2=node_414094419.0 R=0.5 X=0
New Reactor.NEUTRO_node_414094422 phases=1 bus1=node_414094422.4 bus2=node_414094422.0 R=0.5 X=0
New Reactor.NEUTRO_node_414095028 phases=1 bus1=node_414095028.4 bus2=node_414095028.0 R=0.5 X=0
New Reactor.NEUTRO_node_414095031 phases=1 bus1=node_414095031.4 bus2=node_414095031.0 R=0.5 X=0
New Reactor.NEUTRO_node_414095034 phases=1 bus1=node_414095034.4 bus2=node_414095034.0 R=0.5 X=0
New Reactor.NEUTRO_node_414095073 phases=1 bus1=node_414095073.4 bus2=node_414095073.0 R=0.5 X=0
New Reactor.NEUTRO_node_414095076 phases=1 bus1=node_414095076.4 bus2=node_414095076.0 R=0.5 X=0
New Reactor.NEUTRO_node_414095079 phases=1 bus1=node_414095079.4 bus2=node_414095079.0 R=0.5 X=0
New Reactor.NEUTRO_node_414095082 phases=1 bus1=node_414095082.4 bus2=node_414095082.0 R=0.5 X=0
New Reactor.NEUTRO_node_414095121 phases=1 bus1=node_414095121.4 bus2=node_414095121.0 R=0.5 X=0
New Reactor.NEUTRO_node_414095226 phases=1 bus1=node_414095226.4 bus2=node_414095226.0 R=0.5 X=0
New Reactor.NEUTRO_node_414095229 phases=1 bus1=node_414095229.4 bus2=node_414095229.0 R=0.5 X=0
New Reactor.NEUTRO_node_414095235 phases=1 bus1=node_414095235.4 bus2=node_414095235.0 R=0.5 X=0
...
